Version 4
SHEET 1 1820 792
WIRE 576 -48 528 -48
WIRE 704 -48 656 -48
WIRE 704 32 704 -48
WIRE 896 64 832 64
WIRE 896 96 832 96
WIRE 896 128 832 128
WIRE 896 160 832 160
WIRE 896 192 832 192
WIRE 896 224 832 224
WIRE 896 256 832 256
WIRE 896 288 832 288
WIRE 0 304 -32 304
WIRE 448 304 80 304
WIRE 880 336 832 336
WIRE 880 384 880 336
WIRE -368 432 -512 432
WIRE 448 432 -368 432
WIRE 896 448 832 448
WIRE 896 480 832 480
WIRE -368 496 -368 432
WIRE 448 496 416 496
WIRE 896 512 832 512
WIRE 896 544 832 544
WIRE 288 560 288 544
WIRE 416 560 416 496
WIRE 416 560 288 560
WIRE 288 576 288 560
WIRE -368 608 -368 576
WIRE 704 640 704 576
WIRE -512 688 -512 656
WIRE 704 752 704 720
FLAG -32 304 0
FLAG 704 752 0
FLAG 528 -48 0
FLAG 880 384 0
FLAG 288 576 0
FLAG -368 608 0
FLAG -512 688 0
SYMBOL voltage 672 -48 R90
WINDOW 123 0 0 Left 0
WINDOW 39 0 0 Left 0
SYMATTR InstName V1
SYMATTR Value 0.2
SYMBOL voltage 96 304 R90
WINDOW 123 0 0 Left 0
WINDOW 39 0 0 Left 0
SYMATTR InstName V2
SYMATTR Value 0.02
SYMBOL voltage 704 624 R0
WINDOW 123 0 0 Left 0
WINDOW 39 0 0 Left 0
SYMATTR InstName V3
SYMATTR Value 0.02
SYMBOL voltage 288 448 R0
WINDOW 123 0 0 Left 0
WINDOW 39 0 0 Left 0
SYMATTR InstName V4
SYMATTR Value 0.02
SYMBOL thermal_optical_gate_Wije 800 320 R0
SYMATTR InstName X1
SYMBOL voltage -368 480 R0
WINDOW 123 0 0 Left 0
WINDOW 39 0 0 Left 0
SYMATTR InstName V5
SYMATTR Value PULSE(0.003 0.010 100000 10 10 100000 200000)
SYMBOL voltage -512 560 R0
WINDOW 123 0 0 Left 0
WINDOW 39 0 0 Left 0
SYMATTR InstName V6
SYMATTR Value PULSE(0.01 0.003 100000 10 10 100000 200000)
TEXT 304 776 Left 2 !.tran 200000
