Version 4
SHEET 1 1820 1236
WIRE 544 -64 496 -64
WIRE 704 -64 624 -64
WIRE 1424 -64 704 -64
WIRE 704 32 704 -64
WIRE 896 64 832 64
WIRE 896 96 832 96
WIRE 896 128 832 128
WIRE 896 160 832 160
WIRE 896 192 832 192
WIRE 896 224 832 224
WIRE 896 256 832 256
WIRE 896 288 832 288
WIRE 256 304 224 304
WIRE 448 304 336 304
WIRE 880 336 832 336
WIRE 880 384 880 336
WIRE 448 432 -288 432
WIRE 896 448 832 448
WIRE 896 480 832 480
WIRE 1424 480 1424 -64
WIRE 448 496 416 496
WIRE 1616 496 1552 496
WIRE 896 512 832 512
WIRE 1616 528 1552 528
WIRE 896 544 832 544
WIRE -288 560 -288 432
WIRE 288 560 288 544
WIRE 416 560 416 496
WIRE 416 560 288 560
WIRE 1616 560 1552 560
WIRE 288 576 288 560
WIRE 1616 592 1552 592
WIRE 1616 624 1552 624
WIRE 1616 656 1552 656
WIRE -288 672 -288 640
WIRE 1616 688 1552 688
WIRE 1616 720 1552 720
WIRE 704 752 704 576
WIRE 1168 752 704 752
WIRE 1600 784 1552 784
WIRE 704 800 704 752
WIRE 1600 832 1600 784
WIRE 704 912 704 864
WIRE 1424 1104 1424 1024
WIRE 1424 1216 1424 1184
FLAG 224 304 0
FLAG 1424 1216 0
FLAG 496 -64 0
FLAG 880 384 0
FLAG 288 576 0
FLAG -288 672 0
FLAG 704 912 0
FLAG 1600 832 0
FLAG 704 752 Vint
SYMBOL voltage 640 -64 R90
WINDOW 123 0 0 Left 0
WINDOW 39 0 0 Left 0
SYMATTR InstName V1
SYMATTR Value 0.2
SYMBOL voltage 352 304 R90
WINDOW 123 0 0 Left 0
WINDOW 39 0 0 Left 0
SYMATTR InstName V2
SYMATTR Value 0.02
SYMBOL voltage 1424 1088 R0
WINDOW 123 0 0 Left 0
WINDOW 39 0 0 Left 0
SYMATTR InstName V3
SYMATTR Value 0.02
SYMBOL voltage 288 448 R0
WINDOW 123 0 0 Left 0
WINDOW 39 0 0 Left 0
SYMATTR InstName V4
SYMATTR Value 0.02
SYMBOL thermal_optical_gate_Wije 800 320 R0
SYMATTR InstName X1
SYMBOL voltage -288 544 R0
WINDOW 123 0 0 Left 0
WINDOW 39 0 0 Left 0
SYMATTR InstName V5
SYMATTR Value PULSE(0.0 0.005 625000 10 10 2000000 3000000)
SYMBOL thermal_transistor_Joul 1520 768 R0
SYMATTR InstName X2
SYMBOL cap 688 800 R0
SYMATTR InstName C1
SYMATTR Value 40
TEXT 264 912 Left 2 !.tran 2500000
TEXT 264 952 Left 2 !.ic V(Vint) = 0.051
