Version 4
SHEET 1 880 680
WIRE 80 80 80 32
WIRE 176 80 176 32
WIRE 272 80 272 32
WIRE 368 80 368 32
WIRE 32 176 -64 176
WIRE 496 176 416 176
WIRE -64 208 -64 176
WIRE 496 208 496 176
WIRE -64 320 -64 288
WIRE 224 320 224 272
WIRE 496 320 496 288
FLAG -64 320 0
FLAG 496 320 0
FLAG 224 320 0
SYMBOL thermal_rectifier_Werl -64 32 R0
SYMATTR InstName X1
SYMBOL voltage -64 192 R0
WINDOW 123 0 0 Left 0
WINDOW 39 0 0 Left 0
SYMATTR InstName V1
SYMATTR Value 1
SYMBOL voltage 496 192 R0
WINDOW 123 0 0 Left 0
WINDOW 39 0 0 Left 0
SYMATTR InstName V2
SYMATTR Value 0.3
TEXT -178 72 Left 2 !.tran 1000
