Version 4
SHEET 1 1820 792
WIRE 576 -48 528 -48
WIRE 704 -48 656 -48
WIRE 704 32 704 -48
WIRE 896 48 832 48
WIRE 896 80 832 80
WIRE 896 112 832 112
WIRE 896 144 832 144
WIRE 896 176 832 176
WIRE 896 208 832 208
WIRE 896 240 832 240
WIRE 896 272 832 272
WIRE 448 304 -272 304
WIRE 880 336 832 336
WIRE 880 384 880 336
WIRE 32 448 32 416
WIRE -272 496 -272 304
WIRE -128 528 -128 496
WIRE -272 608 -272 576
WIRE 704 640 704 576
WIRE 704 752 704 720
FLAG 32 448 0
FLAG 704 752 0
FLAG 528 -48 0
FLAG 880 384 0
FLAG -128 528 0
FLAG -272 608 0
SYMBOL voltage 672 -48 R90
WINDOW 123 0 0 Left 0
WINDOW 39 0 0 Left 0
SYMATTR InstName V1
SYMATTR Value 0.2
SYMBOL voltage 32 320 R0
WINDOW 123 0 0 Left 0
WINDOW 39 0 0 Left 0
SYMATTR InstName V2
SYMATTR Value 0.1
SYMBOL voltage 704 624 R0
WINDOW 123 0 0 Left 0
WINDOW 39 0 0 Left 0
SYMATTR InstName V3
SYMATTR Value 0.02
SYMBOL thermal_transistor_Joul 800 320 R0
SYMATTR InstName X1
SYMBOL voltage -128 400 R0
WINDOW 123 0 0 Left 0
WINDOW 39 0 0 Left 0
SYMATTR InstName V4
SYMATTR Value PULSE(0.2 0.02 100000 10 10 100000 200000)
SYMBOL voltage -272 480 R0
WINDOW 123 0 0 Left 0
WINDOW 39 0 0 Left 0
SYMATTR InstName V5
SYMATTR Value PULSE(0.02 0.2 100000 10 10 100000 200000)
TEXT 304 776 Left 2 !.tran 200000
